LTspice 24.1.9 for Windows
Circuit: C:\Users\vansh\OneDrive\IIT Madras\LDC_plus_TIA\LTSpice\VCCS WITH DIODE AND REAL TRANSISTOR.net
Start Time: Mon Nov  3 15:21:42 2025
solver = Normal
Maximum thread count: 12
tnom = 27
temp = 27
method = trap
Direct Newton iteration for .op point succeeded.
Direct Newton iteration failed to find .op point.  (Use ".option noopiter" to skip.)
Starting Gmin stepping
Gmin = 10
Gmin = 1.07374
Gmin = 0.115292
Gmin = 0.0123794
Gmin = 0.00132923
vernier = 0.5
vernier = 0.25
vernier = 0.125
Gmin = 0.000862669
vernier = 0.0625
vernier = 0.03125
vernier = 0.015625
vernier = 0.0078125
Gmin = 0.000854313
vernier = 0.00390625
vernier = 0.00520833
Gmin = 0.000846841
vernier = 0.00694444
vernier = 0.00925925
Gmin = 0.00083288
vernier = 0.0123457
Gmin = 0.000810718
vernier = 0.0164609
vernier = 0.0219478
Gmin = 0.000775713
vernier = 0.0292638
vernier = 0.0390184
Gmin = 0.000723372
vernier = 0.0520245
Gmin = 0.000645985
vernier = 0.0693659
vernier = 0.0924879
Gmin = 0.000537066
vernier = 0.123317
vernier = 0.164423
Gmin = 0.000401448
vernier = 0.21923
Gmin = 0.000251356
vernier = 0.292307
vernier = 0.389743
Gmin = 0.000118085
vernier = 0.519657
vernier = 0.692876
Gmin = 3.65936e-05
vernier = 0.923834
Gmin = 5.82495e-06
vernier = 1
Gmin = 6.35124e-07
vernier = 0.5
vernier = 0.25
vernier = 0.125
vernier = 0.0625
vernier = 0.03125
Gmin = 2.60147e-07
vernier = 0.015625
vernier = 0.0078125
vernier = 0.00390625
vernier = 0.00195312
vernier = 0.000976562
vernier = 0.000488281
Gmin = 0
Gmin stepping failed

Starting source stepping with srcstepmethod=0
Source Step = 3.0303%
vernier = 0.25
Source Step = 2.27273%
Source Step = 4.16667%
Source Step = 6.06061%
Source Step = 7.95455%
Source Step = 9.84848%
vernier = 0.09375
Source Step = 12.4053%
Source Step = 15.2462%
Source Step = 18.0871%
Source Step = 20.928%
Source Step = 23.7689%
vernier = 0.140625
Source Step = 27.4621%
Source Step = 31.7235%
Source Step = 35.9848%
Source Step = 40.2462%
Source Step = 44.5076%
vernier = 0.210938
Source Step = 49.8343%
Source Step = 56.2263%
Source Step = 62.6184%
Source Step = 69.0104%
Source Step = 75.4025%
vernier = 0.316406
Source Step = 83.0729%
Source Step = 92.661%
Source stepping succeeded in finding the operating point.

.step 
Total elapsed time: 1.795 seconds.

Files loaded:
C:\Users\vansh\OneDrive\IIT Madras\LDC_plus_TIA\LTSpice\VCCS WITH DIODE AND REAL TRANSISTOR.net
C:\Users\vansh\AppData\Local\LTspice\lib\cmp\standard.dio
C:\Users\vansh\AppData\Local\LTspice\lib\cmp\standard.bjt
C:\Users\vansh\OneDrive\Documents\LTspice\LASER DRIVER DIODE\OPA197.LIB

